WIDTH=8;
DEPTH=256;

ADDRESS_RADIX=HEX;
DATA_RADIX=BIN;

CONTENT BEGIN
        0  :   00000000;
        1  :   00000000;
        2  :   00000000;
        3  :   00000001;
        4  :   00000001;
        5  :   00000001;
        6  :   00000010;
        7  :   00000010;
        8  :   00000011;
        9  :   00000011;
        A  :   00000011;
        B  :   00000100;
        C  :   00000100;
        D  :   00000101;
        E  :   00000101;
        F  :   00000101;
        10  :   00000110;
        11  :   00000110;
        12  :   00000111;
        13  :   00000111;
        14  :   00000111;
        15  :   00001000;
        16  :   00001000;
        17  :   00001001;
        18  :   00001001;
        19  :   00001001;
        1A  :   00001010;
        1B  :   00001010;
        1C  :   00001010;
        1D  :   00001011;
        1E  :   00001011;
        1F  :   00001100;
        20  :   00001100;
        21  :   00001100;
        22  :   00001101;
        23  :   00001101;
        24  :   00001110;
        25  :   00001110;
        26  :   00001110;
        27  :   00001111;
        28  :   00001111;
        29  :   00001111;
        2A  :   00010000;
        2B  :   00010000;
        2C  :   00010001;
        2D  :   00010001;
        2E  :   00010001;
        2F  :   00010010;
        30  :   00010010;
        31  :   00010010;
        32  :   00010011;
        33  :   00010011;
        34  :   00010100;
        35  :   00010100;
        36  :   00010100;
        37  :   00010101;
        38  :   00010101;
        39  :   00010101;
        3A  :   00010110;
        3B  :   00010110;
        3C  :   00010111;
        3D  :   00010111;
        3E  :   00010111;
        3F  :   00011000;
        40  :   00011000;
        41  :   00011000;
        42  :   00011001;
        43  :   00011001;
        44  :   00011001;
        45  :   00011010;
        46  :   00011010;
        47  :   00011011;
        48  :   00011011;
        49  :   00011011;
        4A  :   00011100;
        4B  :   00011100;
        4C  :   00011100;
        4D  :   00011101;
        4E  :   00011101;
        4F  :   00011101;
        50  :   00011110;
        51  :   00011110;
        52  :   00011110;
        53  :   00011111;
        54  :   00011111;
        55  :   00011111;
        56  :   00100000;
        57  :   00100000;
        58  :   00100000;
        59  :   00100001;
        5A  :   00100001;
        5B  :   00100001;
        5C  :   00100010;
        5D  :   00100010;
        5E  :   00100010;
        5F  :   00100011;
        60  :   00100011;
        61  :   00100011;
        62  :   00100100;
        63  :   00100100;
        64  :   00100100;
        65  :   00100101;
        66  :   00100101;
        67  :   00100101;
        68  :   00100110;
        69  :   00100110;
        6A  :   00100110;
        6B  :   00100111;
        6C  :   00100111;
        6D  :   00100111;
        6E  :   00100111;
        6F  :   00101000;
        70  :   00101000;
        71  :   00101000;
        72  :   00101001;
        73  :   00101001;
        74  :   00101001;
        75  :   00101010;
        76  :   00101010;
        77  :   00101010;
        78  :   00101010;
        79  :   00101011;
        7A  :   00101011;
        7B  :   00101011;
        7C  :   00101100;
        7D  :   00101100;
        7E  :   00101100;
        7F  :   00101100;
        80  :   00101101;
        81  :   00101101;
        82  :   00101101;
        83  :   00101110;
        84  :   00101110;
        85  :   00101110;
        86  :   00101110;
        87  :   00101111;
        88  :   00101111;
        89  :   00101111;
        8A  :   00101111;
        8B  :   00110000;
        8C  :   00110000;
        8D  :   00110000;
        8E  :   00110000;
        8F  :   00110001;
        90  :   00110001;
        91  :   00110001;
        92  :   00110001;
        93  :   00110010;
        94  :   00110010;
        95  :   00110010;
        96  :   00110010;
        97  :   00110011;
        98  :   00110011;
        99  :   00110011;
        9A  :   00110011;
        9B  :   00110100;
        9C  :   00110100;
        9D  :   00110100;
        9E  :   00110100;
        9F  :   00110100;
        A0  :   00110101;
        A1  :   00110101;
        A2  :   00110101;
        A3  :   00110101;
        A4  :   00110110;
        A5  :   00110110;
        A6  :   00110110;
        A7  :   00110110;
        A8  :   00110110;
        A9  :   00110111;
        AA  :   00110111;
        AB  :   00110111;
        AC  :   00110111;
        AD  :   00110111;
        AE  :   00111000;
        AF  :   00111000;
        B0  :   00111000;
        B1  :   00111000;
        B2  :   00111000;
        B3  :   00111000;
        B4  :   00111001;
        B5  :   00111001;
        B6  :   00111001;
        B7  :   00111001;
        B8  :   00111001;
        B9  :   00111010;
        BA  :   00111010;
        BB  :   00111010;
        BC  :   00111010;
        BD  :   00111010;
        BE  :   00111010;
        BF  :   00111010;
        C0  :   00111011;
        C1  :   00111011;
        C2  :   00111011;
        C3  :   00111011;
        C4  :   00111011;
        C5  :   00111011;
        C6  :   00111011;
        C7  :   00111100;
        C8  :   00111100;
        C9  :   00111100;
        CA  :   00111100;
        CB  :   00111100;
        CC  :   00111100;
        CD  :   00111100;
        CE  :   00111101;
        CF  :   00111101;
        D0  :   00111101;
        D1  :   00111101;
        D2  :   00111101;
        D3  :   00111101;
        D4  :   00111101;
        D5  :   00111101;
        D6  :   00111101;
        D7  :   00111101;
        D8  :   00111110;
        D9  :   00111110;
        DA  :   00111110;
        DB  :   00111110;
        DC  :   00111110;
        DD  :   00111110;
        DE  :   00111110;
        DF  :   00111110;
        E0  :   00111110;
        E1  :   00111110;
        E2  :   00111110;
        E3  :   00111110;
        E4  :   00111111;
        E5  :   00111111;
        E6  :   00111111;
        E7  :   00111111;
        E8  :   00111111;
        E9  :   00111111;
        EA  :   00111111;
        EB  :   00111111;
        EC  :   00111111;
        ED  :   00111111;
        EE  :   00111111;
        EF  :   00111111;
        F0  :   00111111;
        F1  :   00111111;
        F2  :   00111111;
        F3  :   00111111;
        F4  :   00111111;
        F5  :   00111111;
        F6  :   00111111;
        F7  :   00111111;
        F8  :   00111111;
        F9  :   00111111;
        FA  :   00111111;
        FB  :   00111111;
        FC  :   00111111;
        FD  :   00111111;
        FE  :   00111111;
        FF  :   00111111;
END;
